full_16807
  -OEChem-04092305033D

 27 27  0     1  0  0  0  0  0999 V2000
    5.9393   -9.1673   13.1907 C   0  0  0  0  0  0  0  0  0  0  0  0
    5.4618   -8.2864   12.2003 C   0  0  0  0  0  0  0  0  0  0  0  0
    4.7083   -8.7766   11.1192 C   0  0  0  0  0  0  0  0  0  0  0  0
    4.4306  -10.1497   11.0180 C   0  0  0  0  0  0  0  0  0  0  0  0
    4.9108  -11.0345   11.9969 C   0  0  0  0  0  0  0  0  0  0  0  0
    5.6660  -10.5444   13.0761 C   0  0  0  0  0  0  0  0  0  0  0  0
    6.7606   -8.6520   14.3682 C   0  0  0  0  0  0  0  0  0  0  0  0
    5.9436   -7.8322   15.4091 C   0  0  1  0  0  0  0  0  0  0  0  0
    5.5937   -6.3697   14.9126 C   0  0  0  0  0  0  0  0  0  0  0  0
    6.4199   -5.7009   14.2417 O   0  5  0  0  0  0  0  0  0  0  0  0
    4.4750   -5.8998   15.2562 O   0  0  0  0  0  0  0  0  0  0  0  0
    4.7016   -8.5754   15.8386 N   0  0  0  0  0  0  0  0  0  0  0  0
    4.8136   -9.5986   17.1432 S   0  0  0  0  0  0  0  0  0  0  0  0
    5.2366  -10.9369   16.3645 N   0  0  0  0  0  0  0  0  0  0  0  0
    5.8811   -9.3146   18.1026 O   0  0  0  0  0  0  0  0  0  0  0  0
    3.4789  -10.0361   17.5470 O   0  0  0  0  0  0  0  0  0  0  0  0
    5.6725   -7.2258   12.2668 H   0  0  0  0  0  0  0  0  0  0  0  0
    4.3417   -8.0900   10.3676 H   0  0  0  0  0  0  0  0  0  0  0  0
    3.8493  -10.5237   10.1858 H   0  0  0  0  0  0  0  0  0  0  0  0
    4.7012  -12.0928   11.9190 H   0  0  0  0  0  0  0  0  0  0  0  0
    6.0462  -11.2289   13.8222 H   0  0  0  0  0  0  0  0  0  0  0  0
    7.2210   -9.4963   14.8817 H   0  0  0  0  0  0  0  0  0  0  0  0
    7.5880   -8.0467   13.9958 H   0  0  0  0  0  0  0  0  0  0  0  0
    6.5823   -7.6777   16.2785 H   0  0  0  0  0  0  0  0  0  0  0  0
    3.9467   -7.9079   16.0156 H   0  0  0  0  0  0  0  0  0  0  0  0
    4.9896  -11.6293   17.0555 H   0  0  0  0  0  0  0  0  0  0  0  0
    4.5870  -10.8629   15.5905 H   0  0  0  0  0  0  0  0  0  0  0  0
  1  2  2  0  0  0  0
  1  6  1  0  0  0  0
  1  7  1  0  0  0  0
  2  3  1  0  0  0  0
  2 17  1  0  0  0  0
  3  4  2  0  0  0  0
  3 18  1  0  0  0  0
  4  5  1  0  0  0  0
  4 19  1  0  0  0  0
  5  6  2  0  0  0  0
  5 20  1  0  0  0  0
  6 21  1  0  0  0  0
  7  8  1  0  0  0  0
  7 22  1  0  0  0  0
  7 23  1  0  0  0  0
  8  9  1  0  0  0  0
  8 12  1  0  0  0  0
  8 24  1  0  0  0  0
  9 10  1  0  0  0  0
  9 11  2  0  0  0  0
 12 13  1  0  0  0  0
 12 25  1  0  0  0  0
 13 14  1  0  0  0  0
 13 15  2  0  0  0  0
 13 16  2  0  0  0  0
 14 26  1  0  0  0  0
 14 27  1  0  0  0  0
M  CHG  1  10  -1
M  END
> <SMILES QCArchive>
[H]c1c(c(c(c(c1[H])[H])C([H])([H])[C@@]([H])(C(=O)[O-])N([H])S(=O)(=O)N([H])[H])[H])[H]

> <Energy QCArchive>
-726863.0779179904

> <Record QCArchive>
36971837

$$$$
