full_18630
  -OEChem-04092305033D

 43 45  0     1  0  0  0  0  0999 V2000
   38.3914   12.4285   20.3983 C   0  0  0  0  0  0  0  0  0  0  0  0
   38.3225   10.9338   20.0783 C   0  0  0  0  0  0  0  0  0  0  0  0
   38.9047   10.0957   21.2214 C   0  0  0  0  0  0  0  0  0  0  0  0
   36.9671   10.5694   19.8202 O   0  0  0  0  0  0  0  0  0  0  0  0
   39.0156   10.6520   18.8655 O   0  0  0  0  0  0  0  0  0  0  0  0
   38.0598   10.3168   17.8604 C   0  0  1  0  0  0  0  0  0  0  0  0
   38.6592    9.3960   16.7808 C   0  0  2  0  0  0  0  0  0  0  0  0
   37.9208    9.4530   15.5647 O   0  0  0  0  0  0  0  0  0  0  0  0
   38.2334    8.2944   14.7954 C   0  0  0  0  0  0  0  0  0  0  0  0
   39.2655    8.6435   13.7181 C   0  0  0  0  0  0  0  0  0  0  0  0
   36.9629    7.7004   14.1752 C   0  0  0  0  0  0  0  0  0  0  0  0
   38.8165    7.3892   15.7405 O   0  0  0  0  0  0  0  0  0  0  0  0
   38.6492    7.8942   17.0712 C   0  0  2  0  0  0  0  0  0  0  0  0
   37.3970    7.4755   17.8573 C   0  0  0  0  0  0  0  0  0  0  0  0
   37.1368    8.3275   18.9840 O   0  0  0  0  0  0  0  0  0  0  0  0
   36.8981    9.7228   18.6792 C   0  0  1  0  0  0  0  0  0  0  0  0
   35.5195    9.9672   17.9668 C   0  0  0  0  0  0  0  0  0  0  0  0
   34.3792    9.9047   18.8397 O   0  0  0  0  0  0  0  0  0  0  0  0
   34.1767    8.2917   19.6011 S   0  0  0  0  0  0  0  0  0  0  0  0
   34.2876    7.1178   18.7251 O   0  0  0  0  0  0  0  0  0  0  0  0
   34.0654    8.2188   21.0615 O   0  0  0  0  0  0  0  0  0  0  0  0
   32.5877    8.1476   19.5346 N   0  0  0  0  0  0  0  0  0  0  0  0
   37.9669   13.0092   19.5796 H   0  0  0  0  0  0  0  0  0  0  0  0
   39.4256   12.7387   20.5477 H   0  0  0  0  0  0  0  0  0  0  0  0
   37.8299   12.6457   21.3071 H   0  0  0  0  0  0  0  0  0  0  0  0
   38.3174   10.2348   22.1291 H   0  0  0  0  0  0  0  0  0  0  0  0
   38.8984    9.0379   20.9602 H   0  0  0  0  0  0  0  0  0  0  0  0
   39.9326   10.3956   21.4252 H   0  0  0  0  0  0  0  0  0  0  0  0
   37.7294   11.2399   17.3820 H   0  0  0  0  0  0  0  0  0  0  0  0
   39.6899    9.7068   16.5980 H   0  0  0  0  0  0  0  0  0  0  0  0
   39.5289    7.7555   13.1437 H   0  0  0  0  0  0  0  0  0  0  0  0
   40.1715    9.0417   14.1747 H   0  0  0  0  0  0  0  0  0  0  0  0
   38.8627    9.3917   13.0352 H   0  0  0  0  0  0  0  0  0  0  0  0
   37.1946    6.7682   13.6598 H   0  0  0  0  0  0  0  0  0  0  0  0
   36.5318    8.3948   13.4544 H   0  0  0  0  0  0  0  0  0  0  0  0
   36.2179    7.4943   14.9419 H   0  0  0  0  0  0  0  0  0  0  0  0
   39.5307    7.6407   17.6619 H   0  0  0  0  0  0  0  0  0  0  0  0
   36.5369    7.4495   17.1925 H   0  0  0  0  0  0  0  0  0  0  0  0
   37.5331    6.4529   18.2102 H   0  0  0  0  0  0  0  0  0  0  0  0
   35.3882    9.2763   17.1349 H   0  0  0  0  0  0  0  0  0  0  0  0
   35.5296   10.9601   17.5165 H   0  0  0  0  0  0  0  0  0  0  0  0
   32.4579    8.1433   20.5409 H   0  0  0  0  0  0  0  0  0  0  0  0
   32.6061    7.2216   19.1222 H   0  0  0  0  0  0  0  0  0  0  0  0
  1  2  1  0  0  0  0
  1 23  1  0  0  0  0
  1 24  1  0  0  0  0
  1 25  1  0  0  0  0
  2  3  1  0  0  0  0
  2  4  1  0  0  0  0
  2  5  1  0  0  0  0
  3 26  1  0  0  0  0
  3 27  1  0  0  0  0
  3 28  1  0  0  0  0
  4 16  1  0  0  0  0
  5  6  1  0  0  0  0
  6  7  1  0  0  0  0
  6 16  1  0  0  0  0
  6 29  1  0  0  0  0
  7  8  1  0  0  0  0
  7 13  1  0  0  0  0
  7 30  1  0  0  0  0
  8  9  1  0  0  0  0
  9 10  1  0  0  0  0
  9 11  1  0  0  0  0
  9 12  1  0  0  0  0
 10 31  1  0  0  0  0
 10 32  1  0  0  0  0
 10 33  1  0  0  0  0
 11 34  1  0  0  0  0
 11 35  1  0  0  0  0
 11 36  1  0  0  0  0
 12 13  1  0  0  0  0
 13 14  1  0  0  0  0
 13 37  1  0  0  0  0
 14 15  1  0  0  0  0
 14 38  1  0  0  0  0
 14 39  1  0  0  0  0
 15 16  1  0  0  0  0
 16 17  1  0  0  0  0
 17 18  1  0  0  0  0
 17 40  1  0  0  0  0
 17 41  1  0  0  0  0
 18 19  1  0  0  0  0
 19 20  2  0  0  0  0
 19 21  2  0  0  0  0
 19 22  1  0  0  0  0
 22 42  1  0  0  0  0
 22 43  1  0  0  0  0
M  END
> <SMILES QCArchive>
[H][C@]12[C@]3([C@@](OC([C@]1(OC(O2)(C([H])([H])[H])C([H])([H])[H])[H])([H])[H])(OC(O3)(C([H])([H])[H])C([H])([H])[H])C([H])([H])OS(=O)(=O)N([H])[H])[H]

> <Energy QCArchive>
-956820.4413584577

> <Record QCArchive>
36973709

$$$$
